REMARK  Name = Compound_ligand.pdb
REMARK  8 active torsions:
REMARK  status: ('A' for Active; 'I' for Inactive)
REMARK    1  A    between atoms: C1_1  and  C2_2
REMARK    2  A    between atoms: C2_2  and  C3_3
REMARK    3  A    between atoms: C2_2  and  C4_4
REMARK    4  A    between atoms: C4_4  and  C5_5
REMARK    5  A    between atoms: C8_8  and  C11_11
REMARK    6  A    between atoms: C11_11  and  C12_12
REMARK    7  A    between atoms: C11_11  and  C13_13
REMARK    8  A    between atoms: C13_13  and  O2_15
REMARK                            x       y       z     vdW  Elec       q    Type
REMARK                         _______ _______ _______ _____ _____    ______ ____
ROOT
ATOM      1  C5  UNL     1      -0.888  -0.571   0.450  0.00  0.00    +0.000 A 
ATOM      2  C6  UNL     1       0.077   0.188   1.130  0.00  0.00    +0.000 A 
ATOM      3  C7  UNL     1       1.405   0.194   0.697  0.00  0.00    +0.000 A 
ATOM      4  C8  UNL     1       1.794  -0.560  -0.427  0.00  0.00    +0.000 A 
ATOM      5  C9  UNL     1       0.823  -1.312  -1.109  0.00  0.00    +0.000 A 
ATOM      6  C10 UNL     1      -0.506  -1.316  -0.675  0.00  0.00    +0.000 A 
ENDROOT
BRANCH   4   7
ATOM      7  C11 UNL     1       3.230  -0.556  -0.912  0.00  0.00    +0.000 C 
ATOM      8  C12 UNL     1       3.644   0.837  -1.401  0.00  0.00    +0.000 C 
BRANCH   7   9
ATOM      9  C13 UNL     1       4.154  -1.063   0.162  0.00  0.00    +0.000 C 
ATOM     10  O1  UNL     1       4.432  -2.291   0.219  0.00  0.00    +0.000 OA
BRANCH   9  11
ATOM     11  O2  UNL     1       4.666  -0.196   1.124  0.00  0.00    +0.000 OA
ATOM     12  H18 UNL     1       5.274  -0.536   1.860  0.00  0.00    +0.000 HD
ENDBRANCH   9  11
ENDBRANCH   7   9
ENDBRANCH   4   7
BRANCH   1  13
ATOM     13  C4  UNL     1      -2.327  -0.558   0.899  0.00  0.00    +0.000 C 
BRANCH  13  15
ATOM     14  C1  UNL     1      -4.682   0.184   0.379  0.00  0.00    +0.000 C 
ATOM     15  C2  UNL     1      -3.202   0.361   0.019  0.00  0.00    +0.000 C 
ATOM     16  C3  UNL     1      -2.799   1.836   0.165  0.00  0.00    +0.000 C 
ENDBRANCH  13  15
ENDBRANCH   1  13
TORSDOF 5
